generators/autotest/test_inverter_dyn_1547_single_phase.glm
//Tests single-phase versions of inverter_dyn
//Check for test that was failing due to indexing on single-phase

clock {
	timezone "PST+8PDT";
	starttime '2001-08-01 12:00:00 PDT';
	stoptime '2001-08-01 12:00:6 PDT';
}

#set suppress_repeat_messages=1
#set relax_naming_rules=1;
#set profiler=1
//#set pauseatexit=1
#set double_format=%+.12lg
#set complex_format=%+.12lg%+.12lg%c

module tape;
module assert;
module reliability {
	enable_subsecond_models true;
	maximum_event_length 1800000;	//Maximum length of events in seconds (manual events are excluded from this limit)
	report_event_log true;
}

module powerflow {
	lu_solver "KLU";
	enable_subsecond_models true;
	deltamode_timestep 1 ms;	//10 ms
	solver_method NR;
	all_powerflow_delta true;
	//enable_inrush TRUE;
};

module generators {
	enable_subsecond_models true;
	deltamode_timestep 1 ms;
}

object meter {
	name subtation_bus;
	phases "ABCN";
	bustype SWING;
	nominal_voltage 7200.0;
	object player {
		file ../data_7200v_1s_delta_trigger.player;
		property nominal_voltage;
		flags DELTAMODE;
	};
}

object overhead_line:  {
     phases "ABCN";
     name intermed_line;
     from subtation_bus;
     to feeder_head;
     length 100;
     configuration olcABCN;
}

object meter {
	name feeder_head;
	nominal_voltage 7200;
	phases ABCN;
}

object node {
	name nA;
	phases AN;
	nominal_voltage 7200;
}

object node {
	name nB;
	phases BN;
	nominal_voltage 7200;
}

object node {
	name nC;
	phases CN;
	nominal_voltage 7200;
}

object overhead_line:  {
     phases "AN";
     name lA;
     from feeder_head;
     to nA;
     length 12;
     configuration olcAN;
}

object overhead_line:  {
     phases "BN";
     name lB;
     from feeder_head;
     to nB;
     length 12;
     configuration olcBN;
}

object overhead_line:  {
     phases "CN";
     name lC;
     from feeder_head;
     to nC;
     length 12;
     configuration olcCN;
}


object line_configuration {
	z11 1.1349574926666666+1.200063532333333j;
	z12 0.2481072636666666+0.47157912833333315j;
	z13 0.24810726366666663+0.4715791283333332j;
	z21 0.24810726366666652+0.4715791283333331j;
	z22 1.1349574926666666+1.2000635323333333j;
	z23 0.24810726366666658+0.4715791283333332j;
	z31 0.24810726366666636+0.4715791283333331j;
	z32 0.2481072636666667+0.47157912833333326j;
	z33 1.1349574926666666+1.2000635323333333j;
	name olcABCN;
}

object line_configuration {
	z11 1.0720488106666666+1.198216400333333j;
	name olcAN;
}


object line_configuration {
	z22 1.0819264616666666+1.2049023316666667j;
	name olcBN;
}

object line_configuration {
	z33 0.704233556+1.1631187470000002j;
	name olcCN;
}

object inverter_dyn {
	name inverterA;
	parent nA;
	rated_power 9000.0;
	flags DELTAMODE;
	control_mode GFL_CURRENT_SOURCE;
	grid_following_mode POSITIVE_SEQUENCE;
	frequency_watt false;
	volt_var false;
	Pref_max 1;
	Pref 6000.0;
	Qref 0.0;
	kpPLL 50;
	kiPLL 900;
	Tpf 0.25;
	Tff 0.01;
	Rp 0.05;
	Rq 0.05;
	Tqf 0.2;
	Tvf 0.05;
	enable_1547_checks true;
	over_freq_high_cutout 62.0;
	over_freq_high_disconnect_time 0.16;
	over_freq_low_cutout 60.5;
	over_freq_low_disconnect_time 2.0;
	under_freq_high_cutout 59.5;
	under_freq_high_disconnect_time 0.15;
	under_freq_low_cutout 57.0;
	under_freq_low_disconnect_time 0.16;
	under_voltage_low_cutout 0.45;
	under_voltage_middle_cutout 0.6;
	under_voltage_high_cutout 0.88;
	over_voltage_low_cutout 1.1;
	over_voltage_high_cutout 1.2;
	under_voltage_low_disconnect_time 0.16;
	under_voltage_middle_disconnect_time 1.0;
	under_voltage_high_disconnect_time 2.0;
	over_voltage_low_disconnect_time 1.0;
	over_voltage_high_disconnect_time 0.16;
	object enum_assert {
		flags DELTAMODE;
		target "IEEE_1547_trip_method";
		value 0;
	};
}

object inverter_dyn {
	name inverterB;
	parent nB;
	rated_power 9000.0;
	flags DELTAMODE;
	control_mode GFL_CURRENT_SOURCE;
	grid_following_mode POSITIVE_SEQUENCE;
	frequency_watt false;
	volt_var false;
	Pref_max 1;
	Pref 6000.0;
	Qref 0.0;
	kpPLL 50;
	kiPLL 900;
	Tpf 0.25;
	Tff 0.01;
	Rp 0.05;
	Rq 0.05;
	Tqf 0.2;
	Tvf 0.05;
	enable_1547_checks true;
	over_freq_high_cutout 62.0;
	over_freq_high_disconnect_time 0.16;
	over_freq_low_cutout 60.5;
	over_freq_low_disconnect_time 2.0;
	under_freq_high_cutout 59.5;
	under_freq_high_disconnect_time 0.15;
	under_freq_low_cutout 57.0;
	under_freq_low_disconnect_time 0.16;
	under_voltage_low_cutout 0.45;
	under_voltage_middle_cutout 0.6;
	under_voltage_high_cutout 0.88;
	over_voltage_low_cutout 1.1;
	over_voltage_high_cutout 1.2;
	under_voltage_low_disconnect_time 0.16;
	under_voltage_middle_disconnect_time 1.0;
	under_voltage_high_disconnect_time 2.0;
	over_voltage_low_disconnect_time 1.0;
	over_voltage_high_disconnect_time 0.16;
	object enum_assert {
		flags DELTAMODE;
		target "IEEE_1547_trip_method";
		value 0;
	};
}

object inverter_dyn {
	name inverterC;
	parent nC;
	rated_power 9000.0;
	flags DELTAMODE;
	control_mode GFL_CURRENT_SOURCE;
	grid_following_mode POSITIVE_SEQUENCE;
	frequency_watt false;
	volt_var false;
	Pref_max 1;
	Pref 6000.0;
	Qref 0.0;
	kpPLL 50;
	kiPLL 900;
	Tpf 0.25;
	Tff 0.01;
	Rp 0.05;
	Rq 0.05;
	Tqf 0.2;
	Tvf 0.05;
	enable_1547_checks true;
	over_freq_high_cutout 62.0;
	over_freq_high_disconnect_time 0.16;
	over_freq_low_cutout 60.5;
	over_freq_low_disconnect_time 2.0;
	under_freq_high_cutout 59.5;
	under_freq_high_disconnect_time 0.15;
	under_freq_low_cutout 57.0;
	under_freq_low_disconnect_time 0.16;
	under_voltage_low_cutout 0.45;
	under_voltage_middle_cutout 0.6;
	under_voltage_high_cutout 0.88;
	over_voltage_low_cutout 1.1;
	over_voltage_high_cutout 1.2;
	under_voltage_low_disconnect_time 0.16;
	under_voltage_middle_disconnect_time 1.0;
	under_voltage_high_disconnect_time 2.0;
	over_voltage_low_disconnect_time 1.0;
	over_voltage_high_disconnect_time 0.16;
	object enum_assert {
		flags DELTAMODE;
		target "IEEE_1547_trip_method";
		value 0;
	};
}

// object group_recorder {
	// flags DELTAMODE;
	// name inverter_status;
	// group "class=inverter_dyn";
	// file inver_status.csv;
	// interval 1;
	// property inverter_1547_status;
// }

object group_recorder {
	flags DELTAMODE;
	name inverter_reason;
	group "class=inverter_dyn";
	file inver_reason.csv;
	interval 1;
	property IEEE_1547_trip_method;
}
